1550234
  -OEChem-09252418323D

 49 51  0     0  0  0  0  0  0999 V2000
   -0.0005    2.3385   -1.5498 O   0  0  0  0  0  0  0  0  0  0  0  0
    5.9383   -2.1288   -0.8146 O   0  0  0  0  0  0  0  0  0  0  0  0
   -5.9712   -2.0906   -0.8620 O   0  0  0  0  0  0  0  0  0  0  0  0
    7.5308   -0.4956    0.7735 O   0  0  0  0  0  0  0  0  0  0  0  0
   -7.5222   -0.4956    0.8040 O   0  0  0  0  0  0  0  0  0  0  0  0
    0.0046   -0.7136    1.2833 C   0  0  0  0  0  0  0  0  0  0  0  0
    1.2530    0.1522    1.1822 C   0  0  0  0  0  0  0  0  0  0  0  0
   -1.2422    0.1556    1.1896 C   0  0  0  0  0  0  0  0  0  0  0  0
    1.2737    0.9558   -0.0845 C   0  0  0  0  0  0  0  0  0  0  0  0
   -1.2684    0.9564   -0.0788 C   0  0  0  0  0  0  0  0  0  0  0  0
    0.0014    1.4976   -0.6550 C   0  0  0  0  0  0  0  0  0  0  0  0
    2.4096    1.1969   -0.7559 C   0  0  0  0  0  0  0  0  0  0  0  0
   -2.4069    1.1957   -0.7465 C   0  0  0  0  0  0  0  0  0  0  0  0
    3.7525    0.7499   -0.3570 C   0  0  0  0  0  0  0  0  0  0  0  0
   -3.7480    0.7487   -0.3416 C   0  0  0  0  0  0  0  0  0  0  0  0
    4.2120   -0.4887   -0.7792 C   0  0  0  0  0  0  0  0  0  0  0  0
   -4.2273   -0.4701   -0.7983 C   0  0  0  0  0  0  0  0  0  0  0  0
    4.5370    1.5740    0.4361 C   0  0  0  0  0  0  0  0  0  0  0  0
   -4.5122    1.5541    0.4896 C   0  0  0  0  0  0  0  0  0  0  0  0
    5.4857   -0.9129   -0.3997 C   0  0  0  0  0  0  0  0  0  0  0  0
   -5.4999   -0.8932   -0.4147 C   0  0  0  0  0  0  0  0  0  0  0  0
    5.8104    1.1500    0.8155 C   0  0  0  0  0  0  0  0  0  0  0  0
   -5.7847    1.1311    0.8731 C   0  0  0  0  0  0  0  0  0  0  0  0
    6.2848   -0.0933    0.3976 C   0  0  0  0  0  0  0  0  0  0  0  0
   -6.2785   -0.0926    0.4211 C   0  0  0  0  0  0  0  0  0  0  0  0
    5.6650   -3.2449    0.0303 C   0  0  0  0  0  0  0  0  0  0  0  0
   -5.6966   -3.2363   -0.0583 C   0  0  0  0  0  0  0  0  0  0  0  0
    0.0012   -1.4706    0.4884 H   0  0  0  0  0  0  0  0  0  0  0  0
    0.0066   -1.2505    2.2391 H   0  0  0  0  0  0  0  0  0  0  0  0
    2.1216   -0.5078    1.2757 H   0  0  0  0  0  0  0  0  0  0  0  0
    1.2878    0.8423    2.0350 H   0  0  0  0  0  0  0  0  0  0  0  0
   -1.2699    0.8471    2.0415 H   0  0  0  0  0  0  0  0  0  0  0  0
   -2.1122   -0.5019    1.2888 H   0  0  0  0  0  0  0  0  0  0  0  0
    2.4049    1.7708   -1.6800 H   0  0  0  0  0  0  0  0  0  0  0  0
   -2.4055    1.7653   -1.6733 H   0  0  0  0  0  0  0  0  0  0  0  0
    3.5936   -1.1311   -1.4016 H   0  0  0  0  0  0  0  0  0  0  0  0
   -3.6246   -1.0977   -1.4506 H   0  0  0  0  0  0  0  0  0  0  0  0
    4.1788    2.5449    0.7684 H   0  0  0  0  0  0  0  0  0  0  0  0
   -4.1389    2.5097    0.8484 H   0  0  0  0  0  0  0  0  0  0  0  0
    6.4281    1.7930    1.4367 H   0  0  0  0  0  0  0  0  0  0  0  0
   -6.3807    1.7645    1.5248 H   0  0  0  0  0  0  0  0  0  0  0  0
    7.7134   -1.3592    0.3647 H   0  0  0  0  0  0  0  0  0  0  0  0
   -7.9114    0.1835    1.3814 H   0  0  0  0  0  0  0  0  0  0  0  0
    6.1189   -4.1330   -0.4178 H   0  0  0  0  0  0  0  0  0  0  0  0
    4.5854   -3.4066    0.1112 H   0  0  0  0  0  0  0  0  0  0  0  0
    6.0971   -3.0950    1.0248 H   0  0  0  0  0  0  0  0  0  0  0  0
   -6.1400   -3.1251    0.9363 H   0  0  0  0  0  0  0  0  0  0  0  0
   -4.6168   -3.3947    0.0271 H   0  0  0  0  0  0  0  0  0  0  0  0
   -6.1407   -4.1097   -0.5435 H   0  0  0  0  0  0  0  0  0  0  0  0
  1 11  2  0  0  0  0
  2 20  1  0  0  0  0
  2 26  1  0  0  0  0
  3 21  1  0  0  0  0
  3 27  1  0  0  0  0
  4 24  1  0  0  0  0
  4 42  1  0  0  0  0
  5 25  1  0  0  0  0
  5 43  1  0  0  0  0
  6  7  1  0  0  0  0
  6  8  1  0  0  0  0
  6 28  1  0  0  0  0
  6 29  1  0  0  0  0
  7  9  1  0  0  0  0
  7 30  1  0  0  0  0
  7 31  1  0  0  0  0
  8 10  1  0  0  0  0
  8 32  1  0  0  0  0
  8 33  1  0  0  0  0
  9 11  1  0  0  0  0
  9 12  2  0  0  0  0
 10 11  1  0  0  0  0
 10 13  2  0  0  0  0
 12 14  1  0  0  0  0
 12 34  1  0  0  0  0
 13 15  1  0  0  0  0
 13 35  1  0  0  0  0
 14 16  2  0  0  0  0
 14 18  1  0  0  0  0
 15 17  2  0  0  0  0
 15 19  1  0  0  0  0
 16 20  1  0  0  0  0
 16 36  1  0  0  0  0
 17 21  1  0  0  0  0
 17 37  1  0  0  0  0
 18 22  2  0  0  0  0
 18 38  1  0  0  0  0
 19 23  2  0  0  0  0
 19 39  1  0  0  0  0
 20 24  2  0  0  0  0
 21 25  2  0  0  0  0
 22 24  1  0  0  0  0
 22 40  1  0  0  0  0
 23 25  1  0  0  0  0
 23 41  1  0  0  0  0
 26 44  1  0  0  0  0
 26 45  1  0  0  0  0
 26 46  1  0  0  0  0
 27 47  1  0  0  0  0
 27 48  1  0  0  0  0
 27 49  1  0  0  0  0
M  END
> <PUBCHEM_COMPOUND_CID>
1550234

> <PUBCHEM_CONFORMER_RMSD>
0.8

> <PUBCHEM_CONFORMER_DIVERSEORDER>
1
11
9
5
6
8
10
2
3
4
7

> <PUBCHEM_MMFF94_PARTIAL_CHARGES>
36
1 -0.57
10 -0.12
11 0.54
12 -0.18
13 -0.18
14 0.03
15 0.03
16 -0.15
17 -0.15
18 -0.15
19 -0.15
2 -0.36
20 0.08
21 0.08
22 -0.15
23 -0.15
24 0.08
25 0.08
26 0.28
27 0.28
3 -0.36
34 0.15
35 0.15
36 0.15
37 0.15
38 0.15
39 0.15
4 -0.53
40 0.15
41 0.15
42 0.45
43 0.45
5 -0.53
7 0.14
8 0.14
9 -0.12

> <PUBCHEM_EFFECTIVE_ROTOR_COUNT>
4.6

> <PUBCHEM_PHARMACOPHORE_FEATURES>
8
1 1 acceptor
1 2 acceptor
1 3 acceptor
1 4 donor
1 5 donor
6 14 16 18 20 22 24 rings
6 15 17 19 21 23 25 rings
6 6 7 8 9 10 11 rings

> <PUBCHEM_HEAVY_ATOM_COUNT>
27

> <PUBCHEM_ATOM_DEF_STEREO_COUNT>
0

> <PUBCHEM_ATOM_UDEF_STEREO_COUNT>
0

> <PUBCHEM_BOND_DEF_STEREO_COUNT>
2

> <PUBCHEM_BOND_UDEF_STEREO_COUNT>
0

> <PUBCHEM_ISOTOPIC_ATOM_COUNT>
0

> <PUBCHEM_COMPONENT_COUNT>
1

> <PUBCHEM_CACTVS_TAUTO_COUNT>
5

> <PUBCHEM_CONFORMER_ID>
0017A79A00000001

> <PUBCHEM_MMFF94_ENERGY>
97.2422

> <PUBCHEM_FEATURE_SELFOVERLAP>
40.597

> <PUBCHEM_SHAPE_FINGERPRINT>
10 15 16128655266647841289
117089 54 17974856369999337435
11991303 11 14851896888612562547
12166972 35 18260268564177123492
12236239 1 18412266142669854657
12516196 113 18342458149127015896
12596602 18 18060420217967063344
13533116 47 18343584028144136336
1361 4 18413388739583647894
13685833 64 18410575068116348932
13782708 43 18412542111065507514
13862211 1 17676204667249660168
14211702 104 18412270561748181703
14251764 30 18413386523031759249
14347332 77 18042962074031656984
14556957 393 14924228175072783135
15183329 4 17676481769997032610
15352257 5 18412263930239451278
19958102 18 18187359947943884271
20028762 73 18408040736331812862
20567600 247 18343858918155728135
21033648 29 8934707878186966580
21130935 74 18343865515399321194
21150785 3 15357702998087518732
21197605 99 18343301509380291854
21267235 1 17894917338915081169
21344244 181 18187654582821826778
21623969 137 17489874842626922382
21641784 216 15719672052636157100
21781051 124 16443647747287488609
21814621 53 17846212207434781672
23035841 295 18409450297880746857
23522609 53 18118998881865703564
23536379 177 18202847638498823177
23559900 14 18271517719786675353
23569943 247 17972600987438577434
24771293 8 18187363294156288612
312425 54 18272656718473027273
3383291 50 17894918459606179883
3663271 9 18060139842560132544
397830 11 17417236783610987066
4073 2 18337674230143119346
4340502 62 17489871535807981524
5104073 3 17918276432744036776
5718773 13 18264203613836002906
59755656 215 17458346312572802834
7495541 125 17417811802786987513
9831232 110 18340211770068201246
9996256 80 18409446981527820777

> <PUBCHEM_SHAPE_MULTIPOLES>
526.3
21.14
2.55
1.13
0.08
2.3
0.06
10.64
2.07
-0.06
-0.46
0.06
-0.17
-0.1

> <PUBCHEM_SHAPE_SELFOVERLAP>
1136.211

> <PUBCHEM_SHAPE_VOLUME>
290.2

> <PUBCHEM_COORDINATE_TYPE>
2
5
10

$$$$
